<?xml version="1.0" encoding="UTF-8"?>
<div1 type="trialAccount" id="t18360919-2026">
               <interp inst="t18360919-2026" type="uri" value="sessionsPapers/18360919"></interp>
               <interp inst="t18360919-2026" type="date" value="18360919"></interp>
               <join result="criminalCharge" id="t18360919-2026-charge-1" targOrder="Y" targets="def1-2026-18360919 t18360919-2026-offence-1 t18360919-2026-verdict-1"></join>
               <p>2026. <persName id="def1-2026-18360919" type="defendantName">
                     <interp inst="def1-2026-18360919" type="gender" value="male"></interp>
                     <interp inst="def1-2026-18360919" type="age" value="30"></interp>
                     <interp inst="def1-2026-18360919" type="surname" value="WILLARD"></interp>
                     <interp inst="def1-2026-18360919" type="given" value="TELEMACHUS"></interp>
                     <hi rend="largeCaps">TELEMACHUS WILLARD</hi>
                  </persName> was <hi rend="italic">again</hi> indicted<rs id="t18360919-2026-offence-1" type="offenceDescription">
                     <interp inst="t18360919-2026-offence-1" type="offenceCategory" value="theft"></interp>
                     <interp inst="t18360919-2026-offence-1" type="offenceSubcategory" value="stealingFromMaster"></interp>for stealing, on the <rs id="t18360919-cd-9" type="crimeDate">
                        <join result="offenceCrimeDate" targOrder="Y" targets="t18360919-2026-offence-1 t18360919-cd-9"></join>27th of August</rs>, 3 pairs of braces, value 3<hi rend="italic">s</hi>. 6<hi rend="italic">d</hi>.; and 3 skins of leather, value 4<hi rend="italic">s</hi>.; the goods of <persName id="t18360919-name-144" type="victimName">
                        <interp inst="t18360919-name-144" type="gender" value="male"></interp>
                        <interp inst="t18360919-name-144" type="surname" value="HICKLING"></interp>
                        <interp inst="t18360919-name-144" type="given" value="BENJAMIN WIGG"></interp>
                        <join result="offenceVictim" targOrder="Y" targets="t18360919-2026-offence-1 t18360919-name-144"></join>Benjamin Wigg Hickling</persName>, his master.</rs>
               </p>
               <p>
                  <hi rend="smallCaps">
                     <persName id="t18360919-name-145" type="witnessName">
                        <interp inst="t18360919-name-145" type="gender" value="female"></interp>
                        <interp inst="t18360919-name-145" type="surname" value="CROSSMAN"></interp>
                        <interp inst="t18360919-name-145" type="given" value="SARAH"></interp>SARAH CROSSMAN</persName>
                  </hi>. I live in Golden-lane—I do not know the prisoner—his wife asked me to take the skins to Mr. Barrymore and pledge them for 3<hi rend="italic">s</hi>.—I did so—I believe there were three—I got 3<hi rend="italic">s</hi>., and gave it to her with the duplicate—I believe there were braces among them—I received them from the prisoner's wife in her room—she sent a little girl to me—they were in the room when she delivered them to me—it was in the middle of the day, on Saturday, I believe, in August—she told me to pawn them in my own name, as she should not let husband know, and she would say a woman left them there.</p>
               <p>
                  <hi rend="smallCaps">
                     <persName id="t18360919-name-146" type="witnessName">
                        <interp inst="t18360919-name-146" type="gender" value="male"></interp>
                        <interp inst="t18360919-name-146" type="surname" value="BARRYMORE"></interp>
                        <interp inst="t18360919-name-146" type="given" value="WILLIAM ROSE"></interp>WILLIAM ROSE BARRYMORE</persName>
                  </hi>. I produce the skins and three pairs of braces, pawned, on the 27th of August, by Crossman, in the name of Mary Cross<lb></lb>man.</p>
               <p>
                  <hi rend="smallCaps">
                     <persName id="t18360919-name-147" type="witnessName">
                        <interp inst="t18360919-name-147" type="gender" value="male"></interp>
                        <interp inst="t18360919-name-147" type="surname" value="ROE"></interp>
                        <interp inst="t18360919-name-147" type="given" value="JOHN"></interp>JOHN ROE</persName>
                  </hi>. I found the duplicate in the same drawer with the other duplicate.</p>
               <p>
                  <hi rend="smallCaps">W. E. ALLISON</hi>. These are Mr. Hickling's property.</p>
               <p>
                  <hi rend="smallCaps">JURY</hi>. <hi rend="italic">Q.</hi> The braces you have made out of the house? <hi rend="italic">A.</hi> Yes; but we never give skins out in large quantities like this—we have an im<lb></lb>mense quantity of skins—we could not miss this.</p>
               <p>
                  <rs id="t18360919-2026-verdict-1" type="verdictDescription">
                     <interp inst="t18360919-2026-verdict-1" type="verdictCategory" value="guilty"></interp>
                     <interp inst="t18360919-2026-verdict-1" type="verdictSubcategory" value="withRecommendation"></interp>
                     <hi rend="largeCaps">GUILTY</hi>. Aged 30.—<hi rend="italic">Recommended to mercy by the Prosecutor.</hi>
                  </rs>
               </p>
               <p>
                  <rs id="t18360919-2026-punishment-8" type="punishmentDescription">
                     <interp inst="t18360919-2026-punishment-8" type="punishmentCategory" value="imprison"></interp>
                     <interp inst="t18360919-2026-punishment-8" type="punishmentSubcategory" value="no_subcategory"></interp>
                     <join result="defendantPunishment" targOrder="Y" targets="def1-2026-18360919 t18360919-2026-punishment-8"></join>Confined One Year</rs>.</p>
            </div1>
