<?xml version="1.0" encoding="UTF-8"?>
<div1 type="trialAccount" id="t18360919-2025">
               <interp inst="t18360919-2025" type="uri" value="sessionsPapers/18360919"></interp>
               <interp inst="t18360919-2025" type="date" value="18360919"></interp>
               <join result="criminalCharge" id="t18360919-2025-charge-1" targOrder="Y" targets="def1-2025-18360919 t18360919-2025-offence-1 t18360919-2025-verdict-1"></join>
               <p>2025. <persName id="def1-2025-18360919" type="defendantName">
                     <interp inst="def1-2025-18360919" type="gender" value="male"></interp>
                     <interp inst="def1-2025-18360919" type="age" value="30"></interp>
                     <interp inst="def1-2025-18360919" type="surname" value="WILLARD"></interp>
                     <interp inst="def1-2025-18360919" type="given" value="TELEMACHUS"></interp>
                     <hi rend="largeCaps">TELEMACHUS WILLARD</hi>
                  </persName> was <hi rend="italic">again</hi> indicted<rs id="t18360919-2025-offence-1" type="offenceDescription">
                     <interp inst="t18360919-2025-offence-1" type="offenceCategory" value="theft"></interp>
                     <interp inst="t18360919-2025-offence-1" type="offenceSubcategory" value="stealingFromMaster"></interp> for stealing, on the <rs id="t18360919-cd-8" type="crimeDate">
                        <join result="offenceCrimeDate" targOrder="Y" targets="t18360919-2025-offence-1 t18360919-cd-8"></join>3rd of August</rs>, 3 pairs of braces, value 3<hi rend="italic">s</hi>. 6<hi rend="italic">d</hi>.; and 1 yard of hol<lb></lb>land, value 1<hi rend="italic">s</hi>. 6<hi rend="italic">d</hi>.; the goods of <persName id="t18360919-name-135" type="victimName">
                        <interp inst="t18360919-name-135" type="gender" value="male"></interp>
                        <interp inst="t18360919-name-135" type="surname" value="HICKLING"></interp>
                        <interp inst="t18360919-name-135" type="given" value="BENJAMIN WIGG"></interp>
                        <join result="offenceVictim" targOrder="Y" targets="t18360919-2025-offence-1 t18360919-name-135"></join>Benjamin Wigg Hickling</persName>, his master.</rs>
               </p>
               <p>
                  <hi rend="smallCaps">
                     <persName id="t18360919-name-136" type="witnessName">
                        <interp inst="t18360919-name-136" type="gender" value="female"></interp>
                        <interp inst="t18360919-name-136" type="surname" value="HOLMES"></interp>
                        <interp inst="t18360919-name-136" type="given" value="MARY"></interp>MARY HOLMES</persName>
                  </hi>. I pledged three pair of braces at Mr. Barrymore's in Golden-lane—I received the braces of the prisoner's wife when I was there at work—I forget the name she told me to pledge them in—the prisoner was not at home—I never saw him—I gave her the duplicate of the braces and the others, and she told me to keep them at home.</p>
               <p>
                  <hi rend="smallCaps">
                     <persName id="t18360919-name-137" type="witnessName">
                        <interp inst="t18360919-name-137" type="gender" value="male"></interp>
                        <interp inst="t18360919-name-137" type="surname" value="BARRYMORE"></interp>
                        <interp inst="t18360919-name-137" type="given" value="WILLIAM ROSE"></interp>WILLIAM ROSE BARRYMORE</persName>
                  </hi>. I produce three pair of braces, pledged on the 3rd of August by Holmes, in the name of Mary Wayling.</p>
               <p>
                  <hi rend="smallCaps">
                     <persName id="t18360919-name-138" type="witnessName">
                        <interp inst="t18360919-name-138" type="gender" value="male"></interp>
                        <interp inst="t18360919-name-138" type="surname" value="ROE"></interp>
                        <interp inst="t18360919-name-138" type="given" value="JOHN"></interp>JOHN ROE</persName>
                  </hi>. The house was pointed out to me by Holmes—I found the pri<lb></lb>soner's wife in the second floor front room—I have seen the prisoner in that room—there is a bed in it—I found these two duplicates, one on the 3rd of August, for "3 pair of braces, 2<hi rend="italic">s</hi>., Mary Wayling"—that was in a drawer—I should suppose the things would be under the observation of a man living there—they were merely in a drawer loose, not wrapped up—I found the prisoner there—when I apprehended him, I told him I had found two du<lb></lb>plicates—he said he knew nothing about them—his wife said she knew nothing about them—the prisoner's things were not in the drawer.</p>
               <p>
                  <hi rend="smallCaps">
                     <persName id="t18360919-name-139" type="witnessName">
                        <interp inst="t18360919-name-139" type="gender" value="male"></interp>
                        <interp inst="t18360919-name-139" type="surname" value="NASH"></interp>
                        <interp inst="t18360919-name-139" type="given" value="JAMES"></interp>JAMES NASH</persName>
                  </hi>. I know these braces, they are Mr. Hickling's—the pri<lb></lb>soner had access to them—we never sell braces unfinished—these are not</p>
               <xptr type="pageFacsimile" doc="183609190022"></xptr>
               <p>completed, they have no fronts attached to them—they never were finished braces.</p>
               <p>
                  <hi rend="smallCaps">JURY</hi>. <hi rend="italic">Q.</hi> Have you any mark on them? <hi rend="italic">A.</hi> They are cut out by our stamp—I swear they are Mr. Hickling's—this is the stamp that cuts them out—these would be called braces in the trade.</p>
               <p>
                  <hi rend="smallCaps">
                     <persName id="t18360919-name-140" type="witnessName">
                        <interp inst="t18360919-name-140" type="gender" value="male"></interp>
                        <interp inst="t18360919-name-140" type="surname" value="HICKLING"></interp>
                        <interp inst="t18360919-name-140" type="given" value="BENJAMIN"></interp>BENJAMIN W. HICKLING</persName>
                  </hi> 
                  <hi rend="italic">re-examined.</hi> I do not know how the prisoner could get them into his possession, but by taking them himself—his wife never was on my premises to my knowledge.</p>
               <p>
                  <hi rend="smallCaps">
                     <persName id="t18360919-name-141" type="witnessName">
                        <interp inst="t18360919-name-141" type="gender" value="male"></interp>
                        <interp inst="t18360919-name-141" type="surname" value="ALLISON"></interp>
                        <interp inst="t18360919-name-141" type="given" value="WILLIAM EDMUND"></interp>WILLIAM EDMUND ALLISON</persName>
                  </hi>. These are Mr. Hickling's property—I am his warehouseman.</p>
               <p>
                  <hi rend="italic">Prisoner Q.</hi> In sending up the work from the brace-room, has it not frequently gone down as short? <hi rend="italic">A.</hi> Yes—I have grosses of work go out and they have not been returned, and deducted it when marking it in the book on pay-days, because they have the webbing given out to them.</p>
               <p>
                  <hi rend="italic">Prisoner.</hi> On the Saturday night the officer came to Mr. Hickling's, and asked me about the silk and the braces—I said I knew nothing of it, if there was any suspicion attached to me, to deal with me as the law re<lb></lb>quired—I returned home, and asked my wife what it was about—she said she purchased the silk from a third man; and as to the braces, she lives in Golden-lane, where a number of people live that make braces—one day some woman came to her with braces, and pleading distress, she gave her some money for them—I never saw the duplicate—I never went to one of the drawers—the work received into our brace-shop was checked off every night and put away, so there was no opportunity on my part of taking them, unless I took them by wholesale.</p>
               <p>
                  <hi rend="smallCaps">
                     <persName id="t18360919-name-142" type="witnessName">
                        <interp inst="t18360919-name-142" type="gender" value="male"></interp>
                        <interp inst="t18360919-name-142" type="surname" value="ALLISON"></interp>
                        <interp inst="t18360919-name-142" type="given" value="WILLIAM EDMUND"></interp>WILLIAM EDMUND ALLISON</persName>
                  </hi> 
                  <hi rend="italic">re-examined.</hi> There might have some work left up, which was not checked off, and it would stand to the next day—he could have taken these without its being known.</p>
               <p>
                  <hi rend="largeCaps">
                     <rs id="t18360919-2025-verdict-1" type="verdictDescription">
                        <interp inst="t18360919-2025-verdict-1" type="verdictCategory" value="notGuilty"></interp>
                        <interp inst="t18360919-2025-verdict-1" type="verdictSubcategory" value=""></interp>NOT GUILTY</rs>
                  </hi>
               </p>
            </div1>
