<?xml version="1.0" encoding="UTF-8"?>
<div1 type="trialAccount" id="t18360919-2024">
               <interp inst="t18360919-2024" type="uri" value="sessionsPapers/18360919"></interp>
               <interp inst="t18360919-2024" type="date" value="18360919"></interp>
               <join result="criminalCharge" id="t18360919-2024-charge-1" targOrder="Y" targets="def1-2024-18360919 t18360919-2024-offence-1 t18360919-2024-verdict-1"></join>
               <p>2024. <persName id="def1-2024-18360919" type="defendantName">
                     <interp inst="def1-2024-18360919" type="gender" value="male"></interp>
                     <interp inst="def1-2024-18360919" type="age" value="30"></interp>
                     <interp inst="def1-2024-18360919" type="surname" value="WILLARD"></interp>
                     <interp inst="def1-2024-18360919" type="given" value="TELEMACHUS"></interp>
                     <hi rend="largeCaps">TELEMACHUS WILLARD</hi>
                  </persName> was indicted<rs id="t18360919-2024-offence-1" type="offenceDescription">
                     <interp inst="t18360919-2024-offence-1" type="offenceCategory" value="theft"></interp>
                     <interp inst="t18360919-2024-offence-1" type="offenceSubcategory" value="stealingFromMaster"></interp> for stealing, on the <rs id="t18360919-cd-7" type="crimeDate">
                        <join result="offenceCrimeDate" targOrder="Y" targets="t18360919-2024-offence-1 t18360919-cd-7"></join>1st of September</rs>, 1lb. weight of sewing silk, value 28<hi rend="italic">s</hi>., the goods of <persName id="t18360919-name-130" type="victimName">
                        <interp inst="t18360919-name-130" type="gender" value="male"></interp>
                        <interp inst="t18360919-name-130" type="surname" value="HICKLING"></interp>
                        <interp inst="t18360919-name-130" type="given" value="BENJAMIN WIGG"></interp>
                        <join result="offenceVictim" targOrder="Y" targets="t18360919-2024-offence-1 t18360919-name-130"></join>Benjamin Wigg Hickling</persName>, his master.</rs>
               </p>
               <p>
                  <hi rend="smallCaps">
                     <persName id="t18360919-name-131" type="witnessName">
                        <interp inst="t18360919-name-131" type="gender" value="male"></interp>
                        <interp inst="t18360919-name-131" type="surname" value="HICKLING"></interp>
                        <interp inst="t18360919-name-131" type="given" value="BENJAMIN WIGG"></interp>BENJAMIN WIGG HICKLING</persName>
                  </hi>. I am a stock and brace manufacturer. The prisoner was in my service—I was informed by an officer that a quantity of sewing silk had been pledged by some woman.</p>
               <p>
                  <hi rend="largeCaps">WILLIAM ROSE BARRYMORE</hi>. I live in Golden-land, and am a pawnbroker. This sewing silk was pledged on the 1st and 2nd of September by a woman in the name of Holmes—I gave information to the officer that I was in pos<lb></lb>session of it.</p>
               <p>
                  <hi rend="smallCaps">
                     <persName id="t18360919-name-132" type="witnessName">
                        <interp inst="t18360919-name-132" type="gender" value="male"></interp>
                        <interp inst="t18360919-name-132" type="surname" value="ROE"></interp>
                        <interp inst="t18360919-name-132" type="given" value="JOHN"></interp>JOHN ROE</persName>
                  </hi>. I am an officer. I went to Golden-lane—Holmes told me where the prisoner lived—I went there and found some duplicates—one relates to braces and brown holland, the other to three skins and three pair of braces—I found the tickets of the silk at Holmes's house.</p>
               <p>
                  <hi rend="italic">Prisoner. Q.</hi> On the Saturday night what answer did I make to you? <hi rend="italic">A.</hi> You said you knew nothing about it, and you gave yourself up.</p>
               <p>
                  <hi rend="smallCaps">
                     <persName id="t18360919-name-133" type="witnessName">
                        <interp inst="t18360919-name-133" type="gender" value="female"></interp>
                        <interp inst="t18360919-name-133" type="surname" value="HOLMES"></interp>
                        <interp inst="t18360919-name-133" type="given" value="MARY"></interp>MARY HOLMES</persName>
                  </hi>. I am a widow, and live in Great Hertford-street. I know the prisoner's wife—she told me to take these duplicates home, for fear her husband should see them—she said she had done it unknown to her husband—I did not receive the silk from the prisoner.</p>
               <p>
                  <hi rend="smallCaps">MR. HICKLING</hi>. The prisoner's wife was forbidden to come to our premises.</p>
               <p>
                  <hi rend="smallCaps">JURY</hi>. <hi rend="italic">Q.</hi> Did the prisoner have your work home to make? <hi rend="italic">A.</hi> No; he was clerk—he keeps the books between the work-people and the foreman—he had access to the silk, but had not to work upon it—I cannot iden<lb></lb>tify the silk.</p>
               <p>
                  <hi rend="largeCaps">
                     <rs id="t18360919-2024-verdict-1" type="verdictDescription">
                        <interp inst="t18360919-2024-verdict-1" type="verdictCategory" value="notGuilty"></interp>
                        <interp inst="t18360919-2024-verdict-1" type="verdictSubcategory" value=""></interp>NOT GUILTY</rs>
                  </hi>
               </p>
            </div1>
